
#======================================================================
# CRYSTAL DATA
#----------------------------------------------------------------------
data_VESTA_phase_1

_chemical_name_common                  'XCrySDen XSF file'
_cell_length_a                         3.327070
_cell_length_b                         3.327070
_cell_length_c                         15.069000
_cell_angle_alpha                      90.000000
_cell_angle_beta                       90.000000
_cell_angle_gamma                      120.000000
_cell_volume                           144.457118
_space_group_name_H-M_alt              'P 1'
_space_group_IT_number                 1

loop_
_space_group_symop_operation_xyz
   'x, y, z'

loop_
   _atom_site_label
   _atom_site_occupancy
   _atom_site_fract_x
   _atom_site_fract_y
   _atom_site_fract_z
   _atom_site_adp_type
   _atom_site_U_iso_or_equiv
   _atom_site_type_symbol
   W1         1.0     0.666667     0.333333     0.500888    Uiso  ? W
   Se1        1.0     0.333333     0.666666     0.612457    Uiso  ? Se
   Se2        1.0     0.333333     0.666666     0.389319    Uiso  ? Se
